%NProcShared=32
%chk=Step01-opt-singlet-restart.chk
#p opt rb3lyp/6-31g(d,p) scrf=(iefpcm,solvent=acetonitrile)
empiricaldispersion=gd3

Title Card Required

0 1
 C                 -0.83640300    1.53853500   -0.52880600
 H                 -5.10782000    1.44424300    0.69806200
 C                 -1.19586800   -1.53523600    0.53251400
 O                 -2.00477300   -1.64657900   -0.38958900
 O                 -1.64230800    1.69973200    0.38898400
 N                 -4.79666900   -0.41104300    0.02970900
 H                 -5.30273600   -0.69885100   -0.80828700
 N                 -4.63309000    1.04563100   -0.11254000
 H                 -3.64735100    1.26121800    0.05275900
 H                 -3.87235700   -0.83006400   -0.08920400
 C                 -1.31843800    1.16999700   -1.91452700
 H                 -0.82942900    1.76881800   -2.68745600
 H                 -1.08744800    0.11616000   -2.10185400
 H                 -2.39921500    1.30649500   -1.96583000
 C                 -1.66120300   -1.13868500    1.91621600
 H                 -1.24541600   -1.79400600    2.68669400
 H                 -1.33104400   -0.11581600    2.12194100
 H                 -2.75044700   -1.17110000    1.94611700
 C                  0.62599100    1.66964800   -0.26560300
 C                  1.04196100    2.12096700    0.99847200
 C                  1.59209700    1.33139700   -1.22555900
 C                  2.39556600    2.23828700    1.29468400
 H                  0.28646600    2.37384000    1.73427200
 C                  2.94856100    1.44013400   -0.92363800
 H                  1.29338400    0.96191300   -2.19980900
 C                  3.35188800    1.89645500    0.33279800
 H                  2.70887000    2.59143600    2.27233800
 H                  3.68982100    1.16207100   -1.66584700
 H                  4.40925600    1.98116000    0.56493000
 C                  0.25669200   -1.75279100    0.27755700
 C                  0.65340600   -2.22906500   -0.98354000
 C                  1.23558200   -1.46216700    1.24048400
 C                  2.00070600   -2.41357800   -1.27543200
 H                 -0.11162000   -2.44840400   -1.72020200
 C                  2.58543700   -1.63774000    0.94298700
 H                  0.95187900   -1.07669900    2.21307200
 C                  2.96924600   -2.11508100   -0.31198200
 H                  2.29908400   -2.78435500   -2.25116500
 H                  3.33765800   -1.39262400    1.68544600
 H                  4.02209000   -2.24923400   -0.54108000

