%nprocshared=32
%chk=A2H.chk
#p opt=modredundant ub3lyp/6-31g(d,p) scrf=(iefpcm,solvent=acetonitrile)
guess=(core,mix,always) empiricaldispersion=gd3

Title Card Required

0 2
 C                 -2.78087149    0.03990586   -0.44527566
 C                 -2.95913749   -0.66346714   -1.77388866
 H                 -3.05256749    0.05569486   -2.59366666
 H                 -2.08712749   -1.29409614   -1.97274366
 H                 -3.85210349   -1.28749714   -1.72799666
 C                 -1.65440249    1.01340386   -0.29081866
 C                 -1.52057449    1.69576186    0.93039034
 C                 -0.71564849    1.24517686   -1.30790266
 C                 -0.46831349    2.58261186    1.13344134
 H                 -2.25300049    1.51018986    1.70870434
 C                  0.33932851    2.13365986   -1.10412866
 H                 -0.78956449    0.72060386   -2.25364466
 C                  0.46656851    2.80010486    0.11535834
 H                 -0.37062249    3.10134586    2.08219334
 H                  1.07176451    2.28985186   -1.88913566
 H                  1.29502851    3.48320986    0.27596534
 O                 -3.55481729   -0.19889809    0.51781891
 H                 -4.25104666   -0.79368472    0.22955943


