%NProcShared=32
%chk=AA.chk
#p opt freq b3lyp/6-31g(d,p) scrf=(iefpcm,solvent=acetonitrile)
empiricaldispersion=gd3

Title Card Required

0 1
 C                  0.27369700    1.92457500   -0.16042700
 C                 -1.07181100    1.43553600   -0.84351700
 C                 -1.40410300   -0.01223800   -0.49478600
 C                 -2.11006500   -0.31379100    0.68145000
 C                 -0.96357000   -1.06500600   -1.31410500
 C                 -2.35549700   -1.64473700    1.04269400
 H                 -2.46601000    0.50376000    1.30502900
 C                 -1.20668900   -2.39776000   -0.95604600
 H                 -0.41526400   -0.83993800   -2.22862700
 C                 -1.90098100   -2.69151800    0.22653400
 H                 -2.90096300   -1.86577600    1.95907600
 H                 -0.85835600   -3.20416800   -1.59963200
 H                 -2.09188200   -3.72626600    0.50628000
 C                  0.97176224    0.86153339    0.66033814
 C                  0.72125497    0.73130801    2.03666326
 C                  1.84026983   -0.04564696    0.03019429
 C                  1.32097571   -0.30029395    2.76893907
 H                  0.05307039    1.44124905    2.51849009
 C                  2.43613212   -1.08212799    0.76121867
 H                  2.04478641    0.05551110   -1.03574501
 C                  2.17592993   -1.21306620    2.13282703
 H                  1.12021738   -0.39376748    3.83503279
 H                  3.10611732   -1.78055844    0.26265632
 H                  2.64050549   -2.01574824    2.70282737
 H                  0.69362151    3.63523623    0.73012184
 H                 -1.77425700    2.76024000    0.34956000
 O                 -2.13363900    2.30630400   -0.44673500
 O                 -0.10030572    3.08493373    0.61503625
 C                  1.20336643    2.37603516   -1.30213558
 H                  2.18315355    2.55908853   -0.91302292
 H                  1.25275850    1.60885042   -2.04637210
 H                  0.82012610    3.27384329   -1.74027644
 C                 -0.86730854    1.54863813   -2.36568212
 H                 -1.69052460    1.08867842   -2.87130290
 H                 -0.81053847    2.58072730   -2.64221262
 H                  0.04122682    1.05509257   -2.64113863

