# opt b3lyp/6-31g(d,p) geom=connectivity empiricaldispersion=gd3

Title Card Required

0 2
 C                  0.54638800   -1.36377500    0.36678000
 C                 -0.54574400   -1.32164600   -0.40887900
 O                 -1.35025100   -2.52696100   -0.29529800
 O                  1.35000800   -2.50361200    0.25685200
 C                  0.12643700   -1.49759200    1.89467400
 H                  1.00733300   -1.34383900    2.51416100
 H                 -0.63202100   -0.74664000    2.14596300
 H                 -0.27461300   -2.49161800    2.09949800
 C                 -0.08289900   -1.43661900   -1.89196600
 H                  0.52980100   -0.59400000   -2.21008400
 H                  0.49804700   -2.36131700   -2.02514300
 H                 -0.97306700   -1.48695200   -2.51972100
 C                  1.48935400   -0.12810500    0.27029300
 C                  2.62473400   -0.21308000   -0.54690900
 C                  1.26462600    1.05486500    0.98500600
 C                  3.50872200    0.86125100   -0.65801100
 H                  2.81800400   -1.12697000   -1.09900200
 C                  2.14713100    2.13002100    0.87645300
 H                  0.39082800    1.15466300    1.61862800
 C                  3.27163800    2.03882200    0.05299500
 H                  4.38099300    0.77540100   -1.29909300
 H                  1.95274500    3.04001500    1.43614700
 H                  3.95662500    2.87703100   -0.03192100
 C                 -1.48603500   -0.08147600   -0.27885900
 C                 -2.69200500   -0.17180100    0.42892000
 C                 -1.17102300    1.14748100   -0.87899800
 C                 -3.54526800    0.92754500    0.55174800
 H                 -2.99177200   -1.11045800    0.88058900
 C                 -2.02353200    2.24596900   -0.76690600
 H                 -0.24460800    1.26258700   -1.42904800
 C                 -3.21486100    2.14333800   -0.04628900
 H                 -4.47159100    0.82587200    1.10953800
 H                 -1.75214300    3.18347200   -1.24333400
 H                 -3.87830200    2.99828500    0.04326700
 H                 -1.62029100   -2.62212600    0.61680700

 


