%NProcShared=40
%chk=ABH-freq.chk
#p freq ub3lyp/6-31g(d,p) scrf=(iefpcm,solvent=acetonitrile)
guess=(mix,always) empiricaldispersion=gd3

Title Card Required

0 1
 C                 -0.75247600    1.29556500    0.34713900
 H                 -2.44195000   -2.39364000   -1.83132800
 O                 -1.83327700    0.76768800    0.97026800
 N                 -2.19245700   -1.73258100    0.09363800
 H                 -1.92539200   -0.21869400    0.77397600
 N                 -2.50379300   -1.59383200   -1.20897700
 H                 -3.28485500   -0.97452400   -1.38668600
 H                 -1.50936700   -2.49085400    0.16212200
 C                 -0.97125400    2.68712200   -0.16113700
 H                 -1.65906000    3.21194800    0.50976000
 H                 -0.04325800    3.26066100   -0.22090300
 H                 -1.43318600    2.69139700   -1.15982300
 C                  0.45314500    0.55727000    0.20763300
 C                  0.65916100   -0.66458300    0.92036500
 C                  1.50987200    0.99006300   -0.65111700
 C                  1.82456800   -1.40241600    0.76158100
 H                 -0.08931200   -0.99411200    1.63188700
 C                  2.66741500    0.24054000   -0.79799500
 H                  1.39716000    1.90738700   -1.21971400
 C                  2.83965500   -0.96669500   -0.10146300
 H                  1.95273800   -2.32232000    1.32635000
 H                  3.44768000    0.59308600   -1.46755300
 H                  3.74824700   -1.54814200   -0.22289400

