%NProcShared=40
%chk=ABH.chk
#p opt ub3lyp/6-31g(d,p) scrf=(iefpcm,solvent=acetonitrile)
guess=(mix,always) empiricaldispersion=gd3

Title Card Required

0 1
 C                  0.27886900    1.48331400   -0.23830400
 H                  4.17411600   -2.13347000    0.88575300
 O                  1.53571900    1.23567900   -0.68192300
 N                  2.54475600   -1.11725800    0.17620600
 H                  1.85901500    0.32157300   -0.41573900
 N                  3.79522000   -1.22103500    0.65159800
 H                  4.45747400   -0.57406700    0.24228700
 H                  2.01247800   -1.92835800    0.49712900
 C                  0.04377700    2.92246100    0.10512500
 H                  0.67454700    3.55060300   -0.53195900
 H                 -0.99764100    3.22158900   -0.03751400
 H                  0.31589400    3.14800900    1.14725100
 C                 -0.70099400    0.45882300   -0.13813700
 C                 -0.49774100   -0.83217000   -0.71857800
 C                 -1.94204900    0.67102900    0.53867300
 C                 -1.45547000   -1.82982000   -0.60986100
 H                  0.40957600   -1.02283600   -1.28071100
 C                 -2.88880800   -0.33843700    0.63815200
 H                 -2.14109800    1.63032800    1.00513900
 C                 -2.66044600   -1.60221700    0.07221900
 H                 -1.27011600   -2.79658600   -1.07122500
 H                 -3.81753300   -0.14452100    1.16874800
 H                 -3.40513500   -2.38754600    0.15585800

