%NProcShared=32
%chk=AH-A.chk
#p opt freq ub3lyp/6-31g(d,p) scrf=(iefpcm,solvent=acetonitrile)
empiricaldispersion=gd3

Title Card Required

0 2
 C                 -0.58619300   -1.28297000   -0.50539700
 C                  0.61272700   -1.27297300    0.55408100
 O                 -1.19904400   -2.50081900   -0.37816900
 C                  0.00396200   -1.33741600   -1.95848000
 H                 -0.81204300   -1.42632700   -2.67625800
 H                  0.56190500   -0.41920600   -2.14595500
 H                  0.67726800   -2.18831200   -2.04500400
 C                  0.01928400   -1.31788500    1.97475400
 H                 -0.60814700   -0.45546400    2.20262600
 H                 -0.59625300   -2.21717000    2.07301600
 H                  0.83399700   -1.36701300    2.70067600
 C                 -1.56928400   -0.12093800   -0.34634200
 C                 -2.76856000   -0.33628600    0.34774700
 C                 -1.31489700    1.15839600   -0.86066400
 C                 -3.68675700    0.69744000    0.53028800
 H                 -2.97808400   -1.32513200    0.74179400
 C                 -2.23213900    2.19500500   -0.67864900
 H                 -0.39593600    1.35965800   -1.39838800
 C                 -3.42079000    1.96956100    0.01798900
 H                 -4.60872500    0.50937700    1.07268100
 H                 -2.01564800    3.17882300   -1.08432000
 H                 -4.13338800    2.77667800    0.15930900
 C                  1.56095100   -0.09891700    0.35825400
 C                  2.71690200   -0.24821900   -0.42445900
 C                  1.30607400    1.15392400    0.93711100
 C                  3.58863900    0.82243600   -0.62514500
 H                  2.93037400   -1.21380100   -0.86595800
 C                  2.17603100    2.22571800    0.73498900
 H                  0.41842900    1.30616700    1.53920000
 C                  3.32122000    2.06539600   -0.04774600
 H                  4.47842600    0.68335200   -1.23226100
 H                  1.95677200    3.18642700    1.19134000
 H                  3.99871800    2.89961400   -0.20376400
 O                  1.35487700   -2.46963800    0.34308600
 H                  0.68263700   -3.15764500    0.20194400

