%NProcShared=40
%chk=AABH.chk
#p opt=(calcfc,ts) ub3lyp/6-31g(d,p) scrf=(iefpcm,solvent=acetonitrile)
guess=(mix,always) empiricaldispersion=gd3

Title Card Required

0 1
 C                  0.92302100   -0.76977000   -0.56790900
 H                  4.26370700   -0.66295500    1.05064400
 C                  0.90665000    0.80128900    0.70861600
 O                  1.92404400    1.47804900    0.30152900
 O                  1.92423000   -1.55251900   -0.07639900
 N                  4.31390100    0.68534400   -0.27602500
 H                  4.52563800    0.86954600   -1.25170300
 N                  4.59189100   -0.58827600    0.07766400
 H                  2.83559300   -1.23083900   -0.33318200
 H                  3.42099300    1.11811600    0.08691400
 C                  1.22508600   -0.11673400   -1.90032300
 H                  0.49726900    0.65202800   -2.15416500
 H                  2.21006800    0.34686400   -1.88108100
 H                  1.20603700   -0.88875700   -2.67674400
 C                  1.07896000    0.08103900    2.04766400
 H                  0.96160100    0.82639500    2.84130000
 H                  0.35537400   -0.71618400    2.21594400
 H                  2.08262500   -0.33790300    2.10445600
 C                 -0.39294100   -1.44306300   -0.41596000
 C                 -0.54397200   -2.51246300    0.48836700
 C                 -1.51421500   -1.03528300   -1.16242600
 C                 -1.77494900   -3.14511900    0.64353800
 H                  0.31352000   -2.84975200    1.05773200
 C                 -2.74117100   -1.67476100   -1.01091600
 H                 -1.43792000   -0.20195600   -1.85005200
 C                 -2.87988600   -2.72911500   -0.10453100
 H                 -1.87053900   -3.96792500    1.34550200
 H                 -3.59309600   -1.34282100   -1.59612700
 H                 -3.83948500   -3.22222200    0.01724400
 C                 -0.43962600    1.44815700    0.45921600
 C                 -0.53507400    2.48082300   -0.48667800
 C                 -1.59520100    1.07337800    1.16145800
 C                 -1.75450900    3.10568200   -0.74187900
 H                  0.36381100    2.79036900   -1.00784900
 C                 -2.81313600    1.70763000    0.91751900
 H                 -1.55690300    0.27082300    1.88873300
 C                 -2.90031900    2.72066100   -0.03971900
 H                 -1.80971400    3.89887500   -1.48182800
 H                 -3.69664800    1.40248300    1.47029600
 H                 -3.85097600    3.20800300   -0.23476100

