%NProcShared=40
%chk=AABH-irc-end-freq-prod.chk
#p freq ub3lyp/6-31g(d,p) scrf=(iefpcm,solvent=acetonitrile)
guess=(mix,always) empiricaldispersion=gd3

Title Card Required

0 1
 C                  0.84182100   -1.03768800    0.93703600
 H                 -4.11730700   -2.54064200   -1.95192400
 C                 -0.48766400   -0.88648300    0.07359900
 O                 -1.39213000   -1.78078000    0.74166900
 O                  1.12352100   -2.44213200    0.99892600
 N                 -3.78793500   -1.23332000   -0.70868200
 H                 -4.09751600   -0.28499500   -0.43307000
 N                 -4.45520100   -1.59585500   -1.69198900
 H                  0.25034700   -2.85200400    1.11902200
 H                 -2.23252200   -1.78690700    0.23379800
 C                  0.62930200   -0.54119300    2.37735100
 H                  0.40646400    0.52544000    2.43150800
 H                 -0.20562600   -1.08373600    2.82562900
 H                  1.53476100   -0.74178400    2.95544300
 C                 -0.27094200   -1.40585400   -1.35700400
 H                 -1.21516700   -1.36939200   -1.90704900
 H                  0.47101100   -0.82535500   -1.90651900
 H                  0.07498100   -2.43966000   -1.31002900
 C                  2.03799100   -0.35682100    0.27586000
 C                  2.93368400   -1.10011900   -0.50651000
 C                  2.26716500    1.01999500    0.41845300
 C                  4.01989400   -0.48667500   -1.13278900
 H                  2.77136200   -2.16519400   -0.61616600
 C                  3.35084700    1.63621700   -0.20998600
 H                  1.59256000    1.62502700    1.01237000
 C                  4.23308900    0.88582000   -0.98928500
 H                  4.70082600   -1.08394900   -1.73274300
 H                  3.50433400    2.70446700   -0.08678400
 H                  5.07798000    1.36436300   -1.47588300
 C                 -1.04895900    0.53892100    0.08226800
 C                 -2.01414100    0.90763600    1.03242100
 C                 -0.63141300    1.50668000   -0.84352800
 C                 -2.54653400    2.19752100    1.05697600
 H                 -2.34988300    0.16761200    1.74948800
 C                 -1.15861800    2.79940300   -0.81852100
 H                  0.11815400    1.26111600   -1.58623300
 C                 -2.12007200    3.15136000    0.13018700
 H                 -3.29497300    2.45542800    1.80080800
 H                 -0.81778600    3.53011300   -1.54632700
 H                 -2.53389500    4.15524800    0.14544800

