%NProcShared=40
%chk=AABH-irc-end-opt-prod.chk
#p opt ub3lyp/6-31g(d,p) scrf=(iefpcm,solvent=acetonitrile)
guess=(mix,always) empiricaldispersion=gd3

Title Card Required

0 1
 C                 -0.06682900   -0.66611700    1.08355400
 H                 -3.58353300   -1.88812200   -1.89238300
 C                 -0.94644400    0.15209000   -0.11022000
 O                 -2.25119100    0.27388900    0.43293500
 O                 -0.88306800   -1.77991000    1.45461600
 N                 -4.19432700   -1.38134500   -0.23983100
 H                 -5.00719000   -1.47823000    0.39061100
 N                 -4.41567700   -2.00911600   -1.28516600
 H                 -1.77377600   -1.39691400    1.52725800
 H                 -2.88870200   -0.37583200    0.05196900
 C                  0.08505400    0.23600200    2.32175700
 H                  0.73389100    1.09538300    2.14705800
 H                 -0.90106200    0.61789700    2.59962500
 H                  0.48443600   -0.34975300    3.15429700
 C                 -0.99227900   -0.68798700   -1.39878900
 H                 -1.68504700   -0.23793200   -2.11731000
 H                 -0.01474300   -0.78022200   -1.87173700
 H                 -1.32510200   -1.70000300   -1.14859600
 C                  1.26230300   -1.22454200    0.57167500
 C                  1.33062000   -2.50954000    0.00169100
 C                  2.42474600   -0.43633400    0.54128000
 C                  2.49041100   -2.95767300   -0.63482800
 H                  0.45306200   -3.14412000    0.03807000
 C                  3.58610700   -0.88210600   -0.09553500
 H                  2.41844200    0.55528500    0.97807200
 C                  3.62154000   -2.13983900   -0.69948000
 H                  2.50672800   -3.94590000   -1.08614900
 H                  4.46050200   -0.23811400   -0.12390800
 H                  4.51975700   -2.48156800   -1.20551100
 C                 -0.39647800    1.56326000   -0.32393200
 C                 -0.93927800    2.66878300    0.35736600
 C                  0.75925000    1.76976700   -1.08984700
 C                 -0.30903100    3.91542600    0.32192600
 H                 -1.84306400    2.53254400    0.93905900
 C                  1.39052300    3.01440200   -1.12762100
 H                  1.20440100    0.94372300   -1.63179100
 C                  0.86728500    4.09189800   -0.41171500
 H                 -0.73538200    4.74839800    0.87427500
 H                  2.29767600    3.13600300   -1.71275300
 H                  1.36480100    5.05719200   -0.43055900

