%NProcShared=40
%chk=AABH-irc-quick.chk
#p irc=(calcfc,maxpoints=15) ub3lyp/6-31g(d,p)
scrf=(iefpcm,solvent=acetonitrile) guess=(mix,always)
empiricaldispersion=gd3

Title Card Required

0 1
 C                  0.04081600   -0.77886000    1.23221300
 H                 -3.56592200   -1.89446700   -1.88008900
 C                 -1.11342200    0.26517700   -0.24681200
 O                 -2.25254800    0.23436600    0.39570700
 O                 -0.87969300   -1.78114100    1.45722300
 N                 -4.16348700   -1.35423200   -0.20090300
 H                 -4.93470400   -1.35511300    0.46402600
 N                 -4.40341100   -1.99998800   -1.29029600
 H                 -1.75013400   -1.32695800    1.43474700
 H                 -3.31456900   -0.69470900   -0.01585500
 C                  0.08901600    0.23565500    2.35034400
 H                  0.73164100    1.08623400    2.12573500
 H                 -0.91960400    0.61485300    2.53488200
 H                  0.45168800   -0.24886300    3.26531700
 C                 -0.99774500   -0.69319600   -1.42170400
 H                 -1.66818300   -0.34854600   -2.21895300
 H                  0.00752400   -0.77292400   -1.83302000
 H                 -1.30663700   -1.69050900   -1.09827300
 C                  1.27597200   -1.24848300    0.60533400
 C                  1.33325500   -2.52406500   -0.00131100
 C                  2.43119900   -0.43732200    0.54737900
 C                  2.48817100   -2.96084100   -0.64212600
 H                  0.45946600   -3.16275500    0.04445000
 C                  3.58304900   -0.87893700   -0.09866500
 H                  2.42537000    0.54711900    0.99885600
 C                  3.62053200   -2.14090100   -0.69894600
 H                  2.50804500   -3.94655300   -1.09827200
 H                  4.45674700   -0.23453200   -0.13227200
 H                  4.52087000   -2.48274700   -1.20040600
 C                 -0.41831800    1.58106800   -0.33842300
 C                 -0.93973900    2.68222600    0.36628500
 C                  0.75719800    1.76774900   -1.08919200
 C                 -0.30438400    3.92085300    0.33227800
 H                 -1.85263000    2.54270700    0.93377500
 C                  1.39326100    3.00870700   -1.12148500
 H                  1.18944700    0.94181100   -1.64059200
 C                  0.86884900    4.09056100   -0.41003000
 H                 -0.72566900    4.75793200    0.88198800
 H                  2.30179400    3.12942900   -1.70449100
 H                  1.36541600    5.05599000   -0.43742800

