%NProcShared=40
%chk=AABH-1.chk
#p opt=(calcfc,ts,noeigentest) ub3lyp/6-31g(d,p) scrf=(iefpcm,solvent=acetonitrile)
guess=(mix,always) empiricaldispersion=gd3

Title Card Required

0 1
 C                 -0.82671900    0.72470000   -0.65395000
 H                 -4.28712200    0.91889800    0.92370500
 C                 -0.86465400   -0.78648100    0.68090500
 O                 -1.92773700   -1.46530500    0.32549800
 O                 -1.94207400    1.45923600   -0.27129400
 N                 -4.24432600   -0.62230300   -0.12921400
 H                 -4.64989100   -1.10613100   -0.92786900
 N                 -4.80161900    0.52524200    0.12396100
 H                 -2.71514500    1.10135600   -0.72039800
 H                 -3.27511800   -0.97040100    0.23411400
 C                 -1.01879300    0.02526200   -1.97877300
 H                 -0.18904500   -0.63893500   -2.21683600
 H                 -1.92646200   -0.58321800   -1.93830000
 H                 -1.11627600    0.76915100   -2.77731900
 C                 -0.99796900   -0.02926500    2.00116100
 H                 -0.98038300   -0.75540400    2.82123900
 H                 -0.20709600    0.70259600    2.17018400
 H                 -1.95594100    0.49197100    2.01682800
 C                  0.41743700    1.50226300   -0.44712700
 C                  0.42057500    2.63558000    0.39061400
 C                  1.63117500    1.11974100   -1.04908400
 C                  1.59233200    3.35382200    0.61798800
 H                 -0.50574900    2.95078200    0.85559100
 C                  2.80018400    1.84329600   -0.82461800
 H                  1.66947400    0.24410600   -1.68571400
 C                  2.78943000    2.96217700    0.01183400
 H                  1.56987300    4.22491000    1.26637200
 H                  3.72350400    1.52765400   -1.30116600
 H                  3.70228400    3.52313800    0.18810200
 C                  0.44352700   -1.50750700    0.45376900
 C                  0.48161700   -2.59169600   -0.43905800
 C                  1.63275700   -1.14235500    1.10451700
 C                  1.66999000   -3.27567200   -0.68869700
 H                 -0.44064000   -2.88841600   -0.92531400
 C                  2.82128600   -1.83431800    0.86577500
 H                  1.64232700   -0.30608500    1.79367000
 C                  2.84809500   -2.89986700   -0.03577900
 H                  1.67652100   -4.10827100   -1.38672100
 H                  3.72888100   -1.53362600    1.38138000
 H                  3.77449500   -3.43417800   -0.22527600

