%NProcShared=40
%chk=AABH.chk
#p opt ub3lyp/6-31g(d,p) scrf=(iefpcm,solvent=acetonitrile)
guess=(mix,always) empiricaldispersion=gd3

Title Card Required

0 1
 C                  0.58587800    0.22432500   -0.91914800
 H                  2.89795500    2.34475100    0.02013800
 C                 -0.29171100    0.95251400    0.22335900
 O                 -0.37883900    2.32086700   -0.17549500
 O                  1.68231400    1.11663300   -1.20488600
 N                  1.86265300    3.68881900    0.69801300
 H                  1.91055600    4.60456600    1.17283500
 N                  3.01127700    3.26052600    0.50029200
 H                  1.20677900    1.97349500   -1.40402000
 H                  0.46992000    2.88633900    0.27390100
 C                 -0.22249300    0.08726000   -2.21707200
 H                  0.43681500   -0.26148800   -3.01568800
 H                 -1.06188800   -0.60197800   -2.12179700
 H                 -0.62936600    1.06471500   -2.49169900
 C                  0.38989700    0.85063000    1.59572700
 H                 -0.13329100    1.50103200    2.30197700
 H                  0.38628800   -0.16639400    1.98753100
 H                  1.43263800    1.16584100    1.53299500
 C                  1.18840900   -1.09991100   -0.46888400
 C                  2.48581100   -1.14975100    0.06426400
 C                  0.46577600   -2.29966500   -0.55633300
 C                  3.03539500   -2.35240300    0.50973300
 H                  3.06996600   -0.23988200    0.12527800
 C                  1.01201200   -3.50356100   -0.10730700
 H                 -0.53702800   -2.30184600   -0.96611500
 C                  2.29968400   -3.53646800    0.42987200
 H                  4.04223000   -2.36277100    0.91752500
 H                  0.42848300   -4.41649900   -0.18358100
 H                  2.72645000   -4.47311000    0.77619600
 C                 -1.71643300    0.39216800    0.28116300
 C                 -2.77129100    1.08805500   -0.32759200
 C                 -2.00971500   -0.82344900    0.91806400
 C                 -4.07171400    0.58155700   -0.31274200
 H                 -2.56157800    2.03489700   -0.80940700
 C                 -3.30956200   -1.33363100    0.93267800
 H                 -1.22279800   -1.38974100    1.40167900
 C                 -4.34812300   -0.63451200    0.31554200
 H                 -4.87064200    1.14085400   -0.79177600
 H                 -3.50793800   -2.27769300    1.43217900
 H                 -5.35978300   -1.02946200    0.32882000

