%NProcShared=32
%chk=AAB.chk
#p opt ub3lyp/6-31g(d,p) scrf=(iefpcm,solvent=acetonitrile)
guess=(mix,always) empiricaldispersion=gd3

Title Card Required

0 1
 C                  0.77644300   -0.61789600   -0.48127000
 H                  5.49965700   -0.57888400   -0.94613000
 C                  0.72955900    0.63278800    0.59593100
 O                  1.87056100    1.45518600    0.35898200
 O                  1.91659100   -1.41276600   -0.15734900
 N                  4.57487800    0.41256000    0.40108900
 H                  2.67897000    0.97520200    0.61646500
 N                  4.56001000   -0.36573200   -0.56252100
 H                  2.71739800   -1.01934700   -0.55050700
 H                  5.52534500    0.73011000    0.66820600
 C                  0.93806000   -0.07433200   -1.90497300
 H                  1.02428500   -0.90989300   -2.60484300
 H                  0.10158400    0.55558600   -2.20973900
 H                  1.84361000    0.53461800   -1.95571800
 C                  0.80522500    0.08447000    2.02582300
 H                  0.80985400    0.91700200    2.73430200
 H                 -0.02665700   -0.57947000    2.26584100
 H                  1.72728900   -0.49003000    2.13837900
 C                 -0.44729700   -1.51832600   -0.33960700
 C                 -0.39003700   -2.66914200    0.46137300
 C                 -1.65981000   -1.22190400   -0.98040500
 C                 -1.50719600   -3.48997400    0.62423400
 H                  0.54183000   -2.91916000    0.95353000
 C                 -2.77761200   -2.04304400   -0.82301500
 H                 -1.74509500   -0.33630400   -1.59902200
 C                 -2.70832600   -3.18108900   -0.01760400
 H                 -1.43626800   -4.37458400    1.25113100
 H                 -3.70382200   -1.78906400   -1.33070500
 H                 -3.57782700   -3.82021600    0.10576400
 C                 -0.49400400    1.51534700    0.37303400
 C                 -0.41239700    2.63819700   -0.46508600
 C                 -1.73034600    1.22863800    0.97081300
 C                 -1.52950800    3.43903900   -0.70736600
 H                  0.53803000    2.88092800   -0.92428500
 C                 -2.84867300    2.02964500    0.73347500
 H                 -1.83368800    0.36533600    1.61754200
 C                 -2.75526000    3.13834300   -0.10945400
 H                 -1.43968900    4.30163500   -1.36189000
 H                 -3.79410400    1.78300200    1.20826700
 H                 -3.62506400    3.76181600   -0.29504800

