%NProcShared=32
%chk=M3-U.chk
#p opt=modredundant ub3lyp/6-31g(d,p) scrf=(iefpcm,solvent=acetonitrile)
empiricaldispersion=gd3

Title Card Required

0 3
 C                 -0.06092100   -1.87351200    0.64591700
 C                 -2.78087149    0.03990586   -0.44527566
 C                 -0.59004900   -1.74530900    2.05864400
 H                  0.12901600   -2.14462100    2.78129600
 H                 -0.75885000   -0.69332200    2.30680700
 H                 -1.53158400   -2.28870900    2.13460200
 C                 -2.95913749   -0.66346714   -1.77388866
 H                 -3.05256749    0.05569486   -2.59366666
 H                 -2.08712749   -1.29409614   -1.97274366
 H                 -3.85210349   -1.28749714   -1.72799666
 C                  1.22381100   -1.19956600    0.28791800
 C                  1.72563600   -1.36192000   -1.01417300
 C                  1.92686700   -0.39485700    1.19652400
 C                  2.90393900   -0.73273700   -1.40071100
 H                  1.16987600   -1.98250600   -1.70864100
 C                  3.10692700    0.23909500    0.80759100
 H                  1.55394800   -0.24762900    2.20363800
 C                  3.59662600    0.07184500   -0.48896200
 H                  3.28387000   -0.86303700   -2.40944100
 H                  3.64044800    0.86639400    1.51483200
 H                  4.51470800    0.56743000   -0.79032600
 C                 -1.65440249    1.01340386   -0.29081866
 C                 -1.52057449    1.69576186    0.93039034
 C                 -0.71564849    1.24517686   -1.30790266
 C                 -0.46831349    2.58261186    1.13344134
 H                 -2.25300049    1.51018986    1.70870434
 C                  0.33932851    2.13365986   -1.10412866
 H                 -0.78956449    0.72060386   -2.25364466
 C                  0.46656851    2.80010486    0.11535834
 H                 -0.37062249    3.10134586    2.08219334
 H                  1.07176451    2.28985186   -1.88913566
 H                  1.29502851    3.48320986    0.27596534
 O                 -3.55481729   -0.19889809    0.51781891
 H                 -4.25104666   -0.79368472    0.22955943
 O                 -0.70162409   -2.53183275   -0.21413178
 H                 -1.46703355   -2.93858989    0.19853879

B 1 2 S 22 -0.100000

