%NProcShared=40
%chk=AABH.chk
#p opt ub3lyp/6-31g(d,p) scrf=(iefpcm,solvent=acetonitrile)
guess=(mix,always) empiricaldispersion=gd3

Title Card Required

0 1
 C                 -0.45271100   -1.16228200   -0.58117500
 H                  2.40260500   -1.32711600    0.78653300
 C                  0.54036000   -0.68533000    0.37503800
 O                  1.72777700   -1.46254700    0.07248600
 O                 -0.55835300   -2.59686100   -0.43802400
 N                  4.30559700   -1.59351600   -0.22770300
 H                  5.17606600   -1.75409900   -0.76753900
 N                  4.28749300   -1.34494500    0.97365000
 H                  0.39192700   -2.88979100   -0.33238000
 H                  3.40749900   -1.65155900   -0.76066700
 C                 -0.04657500   -0.90358600   -2.05221400
 H                  0.04450900    0.15653200   -2.29226900
 H                  0.91518000   -1.37942500   -2.25443300
 H                 -0.80307100   -1.34837100   -2.70180700
 C                  0.16895800   -1.02014200    1.83755200
 H                  0.97511200   -0.69311700    2.50003700
 H                 -0.75396200   -0.53543200    2.15615100
 H                  0.03756300   -2.09804600    1.93687200
 C                 -1.86206300   -0.60093900   -0.32102000
 C                 -2.79257100   -1.34550600    0.41740900
 C                 -2.25482400    0.65390500   -0.80881100
 C                 -4.07274500   -0.84863800    0.66867800
 H                 -2.50491600   -2.32071700    0.78961700
 C                 -3.53376300    1.15390100   -0.55724400
 H                 -1.55958700    1.25886500   -1.37840000
 C                 -4.44958800    0.40511000    0.18375000
 H                 -4.77604100   -1.44490400    1.24318200
 H                 -3.81186000    2.13029300   -0.94336100
 H                 -5.44537400    0.79276300    0.37792800
 C                  0.87000900    0.81646700    0.24246100
 C                  1.92879200    1.23764600   -0.57377200
 C                  0.13769300    1.79603900    0.92928500
 C                  2.24480000    2.59046400   -0.70602600
 H                  2.50833100    0.49847500   -1.11201000
 C                  0.45042500    3.15038100    0.80003800
 H                 -0.69458900    1.51065100    1.56122700
 C                  1.50632500    3.55498300   -0.01825400
 H                  3.07075400    2.88830000   -1.34549600
 H                 -0.13394300    3.88809000    1.34221300
 H                  1.75164900    4.60825600   -0.11690900

