%NProcShared=40
%chk=AABH-freq.chk
#p freq ub3lyp/6-31g(d,p) scrf=(iefpcm,solvent=acetonitrile)
guess=(mix,always) empiricaldispersion=gd3

Title Card Required

0 1
 C                  0.76648000   -1.59591500   -0.67528000
 H                  4.09817000   -0.65597600    1.18135400
 C                  1.33560600    1.53346200    0.76015300
 O                  2.23761100    1.91335500    0.00740800
 O                  1.61559700   -2.08935400    0.26403100
 N                  4.36722300    0.01273900   -0.58014800
 H                  4.21989300   -0.19324400   -1.56136000
 N                  4.09894700   -1.03097700    0.22791200
 H                  2.56227500   -1.82406200    0.08629900
 H                  4.02389600    0.93374000   -0.29943100
 C                  1.36893600   -0.98424100   -1.90234400
 H                  0.66095400   -0.94295100   -2.73093600
 H                  1.71758500    0.04029400   -1.71201000
 H                  2.23133400   -1.57411000   -2.23467000
 C                  1.66840000    0.78746300    2.03258000
 H                  1.07631800    1.13537600    2.88203600
 H                  1.46133600   -0.27933400    1.88578000
 H                  2.72814400    0.91923200    2.25509400
 C                 -0.62068100   -1.67108600   -0.38210200
 C                 -1.07039400   -2.20459900    0.86415800
 C                 -1.62217000   -1.21707100   -1.28993500
 C                 -2.42247200   -2.28012500    1.16647500
 H                 -0.33362000   -2.55240300    1.57889700
 C                 -2.96930200   -1.30396000   -0.97328100
 H                 -1.33485600   -0.77735200   -2.23843700
 C                 -3.39014800   -1.83640400    0.25392700
 H                 -2.73111600   -2.68921800    2.12525900
 H                 -3.70554600   -0.94163000   -1.68570900
 H                 -4.44674400   -1.89739900    0.49565200
 C                 -0.08930000    1.78598400    0.41099700
 C                 -0.37573900    2.51813700   -0.75448100
 C                 -1.15081700    1.31438600    1.20088100
 C                 -1.69270000    2.78460800   -1.11446000
 H                  0.45067100    2.87227700   -1.36087500
 C                 -2.46894800    1.57983100    0.83700100
 H                 -0.95740500    0.71870700    2.08468300
 C                 -2.74222400    2.31849800   -0.31556700
 H                 -1.90468600    3.35382200   -2.01446300
 H                 -3.28176400    1.19329600    1.44215800
 H                 -3.77085100    2.52278200   -0.59751400

