%NProcShared=40
%chk=AABH_5.chk
#p opt=modredundant ub3lyp/6-31g(d,p) scrf=(iefpcm,solvent=acetonitrile)
guess=(mix,always) empiricaldispersion=gd3

Title Card Required

0 1
 C                  0.96272400   -1.55743500   -0.72953900
 H                  4.02942100   -0.40657000    1.22064800
 C                  1.13879700    1.51782900    0.79929500
 O                  2.04559800    1.94219000    0.06772900
 O                  1.85229100   -2.02974100    0.18271600
 N                  4.18118400    0.44802000   -0.46881100
 H                  4.20875800    0.27714000   -1.46794000
 N                  4.20748700   -0.69253900    0.25144600
 H                  2.77611400   -1.68390000    0.01856400
 H                  3.50962400    1.18974000   -0.17925700
 C                  1.49676400   -0.89542800   -1.96296700
 H                  0.81427200   -1.00263300   -2.80850500
 H                  1.66636000    0.17934200   -1.80905600
 H                  2.45155800   -1.34725200   -2.25121600
 C                  1.47767100    0.75092000    2.05522400
 H                  0.84390700    1.03624000    2.89721400
 H                  1.33766100   -0.32065800    1.86945900
 H                  2.52123200    0.93373300    2.31511100
 C                 -0.41335000   -1.70969300   -0.41336500
 C                 -0.81558300   -2.29767100    0.82409000
 C                 -1.44917600   -1.28194800   -1.29505600
 C                 -2.15781800   -2.45123200    1.14178000
 H                 -0.05149500   -2.62908900    1.51778500
 C                 -2.78527100   -1.44846800   -0.96383200
 H                 -1.19719200   -0.80004300   -2.23305300
 C                 -3.15963500   -2.03579100    0.25329000
 H                 -2.43134200   -2.90143600    2.09267100
 H                 -3.54969800   -1.10475200   -1.65529700
 H                 -4.20804100   -2.15854800    0.50673200
 C                 -0.28004100    1.74451900    0.43136500
 C                 -0.56593500    2.49643200   -0.72267000
 C                 -1.34156500    1.22466100    1.19108000
 C                 -1.88309800    2.73586500   -1.09887100
 H                  0.25985600    2.88752800   -1.30656800
 C                 -2.65960700    1.46404300    0.81028100
 H                 -1.14721600    0.61033400    2.06163700
 C                 -2.93298000    2.22343900   -0.32884200
 H                 -2.09532800    3.32064500   -1.98860900
 H                 -3.47187600    1.04337800    1.39305400
 H                 -3.96177000    2.40860300   -0.62296200

B 4 10 F
B 3 1 S 10 -0.200000
B 5 9 F

