%NProcShared=40
%chk=AABH_8.chk
#p opt=modredundant ub3lyp/6-31g(d,p) scrf=(iefpcm,solvent=acetonitrile)
guess=(mix,always) empiricaldispersion=gd3

Title Card Required

0 1
 C                  0.97732800   -1.53478300   -0.75778200
 H                  4.00361000   -0.41082800    1.21168800
 C                  1.12876800    1.43828200    0.83691000
 O                  2.05966200    1.86006100    0.11691100
 O                  1.87717000   -2.02073500    0.13322300
 N                  4.02423300    0.54411600   -0.42957400
 H                  4.09125700    0.41071600   -1.43476300
 N                  4.18157500   -0.62721100    0.22333800
 H                  2.79393000   -1.65194500   -0.02021900
 H                  3.21298500    1.22474800   -0.10013500
 C                  1.48611700   -0.87444500   -2.00360700
 H                  0.81923300   -1.04751800   -2.85167100
 H                  1.58816100    0.21281300   -1.88175400
 H                  2.46895000   -1.27526400   -2.26875000
 C                  1.44327800    0.65081400    2.08158000
 H                  0.80469900    0.93839100    2.91887100
 H                  1.28536200   -0.41570500    1.88175400
 H                  2.48645500    0.80916300    2.35761000
 C                 -0.39599000   -1.69413800   -0.42936800
 C                 -0.78595800   -2.30058000    0.80243900
 C                 -1.43881200   -1.25067100   -1.29430300
 C                 -2.12545000   -2.45778200    1.13075600
 H                 -0.01540200   -2.64670400    1.48174100
 C                 -2.77204700   -1.42078700   -0.95274000
 H                 -1.19431600   -0.75387500   -2.22644200
 C                 -3.13481200   -2.02737700    0.25823800
 H                 -2.39054700   -2.92332500    2.07654700
 H                 -3.54283700   -1.06493800   -1.63076000
 H                 -4.18085200   -2.15308600    0.51983000
 C                 -0.26867400    1.70421100    0.45115000
 C                 -0.52148500    2.45779000   -0.71153000
 C                 -1.35340800    1.21782300    1.20289300
 C                 -1.82717000    2.73039300   -1.10239100
 H                  0.31949300    2.82384400   -1.28962300
 C                 -2.65917500    1.49276300    0.80703500
 H                 -1.18560100    0.60350700    2.07879900
 C                 -2.89882400    2.25289000   -0.33951200
 H                 -2.01400300    3.31478400   -1.99787000
 H                 -3.48922400    1.10016300    1.38422800
 H                 -3.91878600    2.46569000   -0.64512100

B 4 10 F
B 3 1 S 10 -0.200000
B 5 9 F

