%NProcShared=40
%chk=AABH_10.chk
#p opt=modredundant ub3lyp/6-31g(d,p) scrf=(iefpcm,solvent=acetonitrile)
guess=(mix,always) empiricaldispersion=gd3

Title Card Required

0 1
 C                  1.01155800   -1.46191600   -0.70729800
 H                  4.07371100   -0.40027900    1.25829300
 C                  1.11418500    1.40151600    0.74924300
 O                  2.01071300    1.83629800   -0.04883300
 O                  1.88937900   -1.94477700    0.18749000
 N                  4.03196900    0.58187100   -0.37052900
 H                  4.09741900    0.41104700   -1.37623000
 N                  4.16749200   -0.60962000    0.25633500
 H                  2.80987200   -1.57747100    0.05415200
 H                  3.00472400    1.33328000   -0.08079300
 C                  1.53043300   -0.84648900   -1.97144400
 H                  0.88639900   -1.08125800   -2.82227000
 H                  1.59848500    0.24731600   -1.89931200
 H                  2.53000700   -1.22970200   -2.19097900
 C                  1.51794400    0.69644200    2.01039900
 H                  0.92562500    1.04045100    2.86087000
 H                  1.36249500   -0.38378000    1.90302600
 H                  2.57166200    0.88023600    2.22052400
 C                 -0.37234800   -1.63863800   -0.41199400
 C                 -0.78089500   -2.25200500    0.80659600
 C                 -1.39320100   -1.19394100   -1.29775700
 C                 -2.12631500   -2.42909800    1.10024700
 H                 -0.02196300   -2.59354700    1.50100300
 C                 -2.73330400   -1.37898300   -0.98989600
 H                 -1.12949500   -0.68731800   -2.21880300
 C                 -3.11596600   -2.00298800    0.20457900
 H                 -2.41041000   -2.90489700    2.03490900
 H                 -3.49156700   -1.02317200   -1.68129400
 H                 -4.16661500   -2.14353300    0.43860700
 C                 -0.28247500    1.64114000    0.42038600
 C                 -0.61043300    2.31580500   -0.77667300
 C                 -1.32583500    1.20519500    1.26490400
 C                 -1.93727300    2.56470400   -1.10300400
 H                  0.18947800    2.64270500   -1.43087100
 C                 -2.65119000    1.45837600    0.93042600
 H                 -1.10563600    0.65446600    2.17091000
 C                 -2.96160000    2.14410200   -0.24670700
 H                 -2.17786400    3.08797900   -2.02309300
 H                 -3.44491100    1.10938100    1.58224200
 H                 -3.99808400    2.34084000   -0.50282900

B 4 10 F
B 3 1 S 10 -0.200000
B 5 9 F

