%NProcShared=40
%chk=AABH_3.chk
#p opt=modredundant ub3lyp/6-31g(d,p) scrf=(iefpcm,solvent=acetonitrile)
guess=(mix,always) empiricaldispersion=gd3

Title Card Required

0 1
 C                  0.91689000   -1.57177100   -0.69557900
 H                  4.07750800   -0.44649000    1.22209000
 C                  1.18611300    1.55291600    0.76283000
 O                  2.07728000    1.97083000    0.01396200
 O                  1.78915200   -2.03926700    0.23586700
 N                  4.29199300    0.31195100   -0.50782500
 H                  4.24742400    0.10691900   -1.49944000
 N                  4.19003600   -0.78969700    0.26253800
 H                  2.72118200   -1.71722800    0.06970200
 H                  3.75144600    1.14117600   -0.23135200
 C                  1.48090900   -0.93326500   -1.92766800
 H                  0.79004100   -0.99285500   -2.77042400
 H                  1.71457200    0.12805500   -1.76476700
 H                  2.40654700   -1.43847700   -2.22466700
 C                  1.54442000    0.80847800    2.02848300
 H                  0.92919000    1.11569600    2.87683100
 H                  1.39373900   -0.26570900    1.86793400
 H                  2.59411800    0.99011200    2.26316600
 C                 -0.46482800   -1.70228700   -0.39552900
 C                 -0.88920900   -2.26740600    0.84532600
 C                 -1.48528300   -1.27509000   -1.29531300
 C                 -2.23670800   -2.40069900    1.14897000
 H                 -0.13738800   -2.59608400    1.55351400
 C                 -2.82705500   -1.42029000   -0.97753700
 H                 -1.21703500   -0.81002400   -2.23728600
 C                 -3.22306500   -1.98567300    0.24314200
 H                 -2.52678000   -2.83366000    2.10300500
 H                 -3.57896400   -1.07710200   -1.68292300
 H                 -4.27581300   -2.09196300    0.48589200
 C                 -0.24339200    1.76300900    0.41333800
 C                 -0.55178500    2.49584300   -0.74646600
 C                 -1.29000500    1.24981300    1.19734300
 C                 -1.87608100    2.72382000   -1.10523900
 H                  0.26311600    2.88160500   -1.34903000
 C                 -2.61542900    1.47732000    0.83451100
 H                 -1.07877700    0.65090600    2.07477200
 C                 -2.91100800    2.21816400   -0.31116600
 H                 -2.10521900    3.29429800   -2.00015800
 H                 -3.41615000    1.06140300    1.43637600
 H                 -3.94532200    2.39384100   -0.59152100

B 4 10 F
B 3 1 S 10 -0.200000
B 5 9 F

