%NProcShared=40
%chk=AABH_6.chk
#p opt=modredundant ub3lyp/6-31g(d,p) scrf=(iefpcm,solvent=acetonitrile)
guess=(mix,always) empiricaldispersion=gd3

Title Card Required

0 1
 C                  0.97583100   -1.55045100   -0.74434100
 H                  4.01211000   -0.39753300    1.21699900
 C                  1.12560700    1.49276200    0.81854800
 O                  2.04218900    1.91824800    0.09610700
 O                  1.87215500   -2.02620100    0.15885700
 N                  4.12296000    0.49869900   -0.45337900
 H                  4.17225400    0.34616400   -1.45503000
 N                  4.20452200   -0.65497500    0.24215400
 H                  2.79223600   -1.66937700   -0.00277900
 H                  3.40138700    1.20583400   -0.15191100
 C                  1.49718800   -0.88307100   -1.98057500
 H                  0.81927600   -1.01329300   -2.82692100
 H                  1.63919400    0.19677200   -1.83450500
 H                  2.46341000   -1.31284100   -2.26335800
 C                  1.45214700    0.71436900    2.06947000
 H                  0.81262900    0.99497800    2.90856300
 H                  1.30939500   -0.35496400    1.87332800
 H                  2.49425800    0.89020600    2.33964200
 C                 -0.39807300   -1.70913000   -0.42119100
 C                 -0.79199400   -2.30608700    0.81453200
 C                 -1.43945500   -1.27829900   -1.29470500
 C                 -2.13219600   -2.46483600    1.13848800
 H                 -0.02337800   -2.64122700    1.50144200
 C                 -2.77339300   -1.45031600   -0.95744300
 H                 -1.19339500   -0.78965200   -2.23078300
 C                 -3.13966900   -2.04626400    0.25790600
 H                 -2.39959500   -2.92196500    2.08779200
 H                 -3.54237800   -1.10408500   -1.64253800
 H                 -4.18638800   -2.17321900    0.51618800
 C                 -0.28609900    1.73241200    0.44051400
 C                 -0.55726200    2.49026500   -0.71365800
 C                 -1.35747100    1.21806700    1.19056400
 C                 -1.86955100    2.74043500   -1.09915500
 H                  0.27563400    2.87724100   -1.29008300
 C                 -2.67047400    1.46885100    0.80041400
 H                 -1.17449200    0.59929700    2.06038800
 C                 -2.92914200    2.23379100   -0.33850600
 H                 -2.07061800    3.32931000   -1.98872700
 H                 -3.49044900    1.05307600    1.37584600
 H                 -3.95416900    2.42784300   -0.63986100

B 4 10 F
B 3 1 S 10 -0.200000
B 5 9 F

