#p opt=modredundant ub3lyp/6-31g(d,p) scrf=(iefpcm,solvent=acetonitrile)
empiricaldispersion=gd3

Title Card Required

0 1
 C                  0.95095700    0.94144600    0.64988200
 O                  1.60682300    0.38941800    1.53148700
 C                  1.50798500    2.14083400   -0.08537300
 H                  1.59190200    1.91161300   -1.15102000
 H                  0.85191200    3.01037900    0.02493300
 H                  2.49540000    2.37477900    0.31372800
 C                 -0.42073000    0.45322700    0.30628300
 C                 -0.95966500   -0.60970600    1.04868900
 C                 -1.18382200    1.02055000   -0.72592200
 C                 -2.23042300   -1.10042800    0.76288800
 H                 -0.36553800   -1.03666900    1.84924000
 C                 -2.45691500    0.52835800   -1.01345700
 H                 -0.78853300    1.84185100   -1.31344100
 C                 -2.98193000   -0.53223000   -0.27102000
 H                 -2.63763800   -1.92303500    1.34295000
 H                 -3.03817800    0.97139200   -1.81627900
 H                 -3.97335900   -0.91414400   -0.49580100
 H                  1.84593400   -1.58135600    0.52295000
 N                  2.18534800   -0.91783700   -1.30698900
 H                  3.12252900   -0.51427900   -1.27710500
 H                  2.06740600   -1.30378800   -2.24018100
 N                  2.05379100   -2.01226500   -0.37655400
 H                  2.94685800   -2.49368800   -0.25888600

B 2 18 S 13 -0.100000

