%NProcShared=40
%chk=ABH.chk
#p opt=modredundant ub3lyp/6-31g(d,p) scrf=(iefpcm,solvent=acetonitrile)
empiricaldispersion=gd3

Title Card Required

0 3
 C                  0.54767900    1.20273200   -0.35460700
 H                  4.20854400   -1.24984900    1.28802700
 O                  1.70847100    0.68486200   -0.83931200
 N                  2.60859100   -1.62103500    0.05015100
 H                  1.77455400   -0.30283100   -0.72065400
 N                  3.32697300   -0.89754300    0.92784700
 H                  3.28911900    0.09655900    0.72448300
 H                  2.84148300   -2.60752200    0.17987300
 C                  0.65302300    2.66054300   -0.02897400
 H                  1.47990000    3.09781600   -0.59494700
 H                 -0.26188400    3.20682600   -0.27574300
 H                  0.85849900    2.83149700    1.03819800
 C                 -0.62310300    0.42023300   -0.17858500
 C                 -0.71511400   -0.92977600   -0.64033300
 C                 -1.77731200    0.95836800    0.47157100
 C                 -1.87082100   -1.67446300   -0.45683200
 H                  0.12497900   -1.38185500   -1.15588600
 C                 -2.92462900    0.19839500    0.64631400
 H                 -1.75367700    1.97409000    0.85185600
 C                 -2.98967600   -1.12603800    0.18803400
 H                 -1.90729900   -2.69642100   -0.82533200
 H                 -3.78117600    0.63860300    1.15025600
 H                 -3.89004600   -1.71572300    0.32885700

