%NProcShared=32
%chk=AAH.chk
#p td=(nstates=24) ub3lyp/6-31g(d,p)
scrf=(iefpcm,solvent=acetonitrile) guess=(core,mix)
empiricaldispersion=gd3

Title Card Required

0 1
 C                 -0.06092100   -1.87351200    0.64591700
 C                 -2.70936100   -0.01040000   -0.41658700
 O                 -3.46427300   -0.24333100    0.52282200
 O                 -0.68654400   -2.51633800   -0.19388900
 C                 -0.59004900   -1.74530900    2.05864400
 H                  0.12901600   -2.14462100    2.78129600
 H                 -0.75885000   -0.69332200    2.30680700
 H                 -1.53158400   -2.28870900    2.13460200
 C                 -2.88762700   -0.71377300   -1.74520000
 H                 -2.98105700    0.00538900   -2.56497800
 H                 -2.01561700   -1.34440200   -1.94405500
 H                 -3.78059300   -1.33780300   -1.69930800
 C                  1.22381100   -1.19956600    0.28791800
 C                  1.72563600   -1.36192000   -1.01417300
 C                  1.92686700   -0.39485700    1.19652400
 C                  2.90393900   -0.73273700   -1.40071100
 H                  1.16987600   -1.98250600   -1.70864100
 C                  3.10692700    0.23909500    0.80759100
 H                  1.55394800   -0.24762900    2.20363800
 C                  3.59662600    0.07184500   -0.48896200
 H                  3.28387000   -0.86303700   -2.40944100
 H                  3.64044800    0.86639400    1.51483200
 H                  4.51470800    0.56743000   -0.79032600
 C                 -1.58289200    0.96309800   -0.26213000
 C                 -1.44906400    1.64545600    0.95907900
 C                 -0.64413800    1.19487100   -1.27921400
 C                 -0.39680300    2.53230600    1.16213000
 H                 -2.18149000    1.45988400    1.73739300
 C                  0.41083900    2.08335400   -1.07544000
 H                 -0.71805400    0.67029800   -2.22495600
 C                  0.53807900    2.74979900    0.14404700
 H                 -0.29911200    3.05104000    2.11088200
 H                  1.14327500    2.23954600   -1.86044700
 H                  1.36653900    3.43290400    0.30465400

