%NProcShared=32
%chk=AH-A_8.chk
#p td=(50-50,nstates=36) ub3lyp/6-31g(d,p)
scrf=(iefpcm,solvent=acetonitrile) guess=(mix,always) 
empiricaldispersion=gd3

Title Card Required

0 2
 C                 -0.94555400   -1.41072900   -0.89847900
 C                  0.74421200   -1.25036500    0.93699800
 O                 -1.34091800   -2.50055600   -0.44143300
 C                  0.05725000   -1.41302600   -2.03603400
 H                 -0.50802000   -1.40590000   -2.97588900
 H                  0.72790800   -0.55471400   -2.04070900
 H                  0.64659000   -2.32842900   -1.98753400
 C                 -0.24307700   -1.18527800    2.06431400
 H                 -0.70938800   -0.20611000    2.16313700
 H                 -1.03516300   -1.92184600    1.90623300
 H                  0.26365100   -1.42732500    3.00811500
 C                 -1.66517400   -0.14702400   -0.56483200
 C                 -2.83550500   -0.22654200    0.21145600
 C                 -1.22245100    1.11570700   -0.99442700
 C                 -3.53931500    0.92302000    0.55605300
 H                 -3.17487200   -1.20489100    0.53268100
 C                 -1.92666400    2.26763400   -0.64592300
 H                 -0.31856200    1.20895300   -1.58384500
 C                 -3.08457700    2.17596300    0.13000300
 H                 -4.44224700    0.84651300    1.15441600
 H                 -1.56767200    3.23744800   -0.97659200
 H                 -3.63097200    3.07458000    0.40044900
 C                  1.61980700   -0.17257600    0.57498300
 C                  2.73931200   -0.40278000   -0.26961500
 C                  1.38025100    1.15960700    1.00276900
 C                  3.56387500    0.64295000   -0.66310700
 H                  2.93873600   -1.41270700   -0.60712600
 C                  2.21079400    2.19827400    0.59992300
 H                  0.53374400    1.37989900    1.64175300
 C                  3.30760400    1.95214400   -0.23469100
 H                  4.41388400    0.44041300   -1.30840800
 H                  2.00174800    3.20925800    0.93728100
 H                  3.95295500    2.76750500   -0.54640100
 O                  1.16370600   -2.50260400    0.59502600
 H                  0.36065900   -3.03924700    0.43736200

