%NProcShared=32
%chk=AH-A_11.chk
#p td=(50-50,nstates=36) ub3lyp/6-31g(d,p)
scrf=(iefpcm,solvent=acetonitrile) guess=(mix,always) 
empiricaldispersion=gd3

Title Card Required

0 2
 C                 -0.80757000   -1.36956500   -0.79624800
 C                  0.70151400   -1.24454500    0.79969600
 O                 -1.22565400   -2.50256000   -0.42967200
 C                  0.12800900   -1.32352700   -1.99975900
 H                 -0.49815000   -1.42431000   -2.89386300
 H                  0.70616000   -0.40538300   -2.08991200
 H                  0.80978100   -2.17287500   -1.95638500
 C                 -0.20379600   -1.20046800    2.00656600
 H                 -0.73038700   -0.25359700    2.11114500
 H                 -0.94416600   -1.99940900    1.94028900
 H                  0.40863900   -1.36211100    2.90201700
 C                 -1.63482800   -0.15193100   -0.50163600
 C                 -2.83036100   -0.31210000    0.22028200
 C                 -1.27254200    1.13725100   -0.92595600
 C                 -3.63584900    0.78323700    0.51842600
 H                 -3.10925100   -1.31127200    0.53544900
 C                 -2.07909600    2.23545200   -0.62649000
 H                 -0.35327700    1.29444800   -1.47669200
 C                 -3.26092200    2.06367500    0.09765500
 H                 -4.55732300    0.64165900    1.07555400
 H                 -1.78160300    3.22609200   -0.95704200
 H                 -3.88708700    2.91987300    0.33033100
 C                  1.60325600   -0.14188600    0.50127100
 C                  2.76455800   -0.35740300   -0.27827700
 C                  1.33481000    1.17294000    0.94628200
 C                  3.61523000    0.69517700   -0.59490300
 H                  2.98275800   -1.35994800   -0.62533200
 C                  2.18876400    2.22211100    0.62186100
 H                  0.44990700    1.37698300    1.53617300
 C                  3.33229000    1.99175700   -0.14971400
 H                  4.50309500    0.50722200   -1.19120000
 H                  1.96125300    3.22455100    0.97144700
 H                  3.99611000    2.81318200   -0.40117900
 O                  1.21798900   -2.47985000    0.52993800
 H                  0.44407300   -3.05689000    0.35273900

