%NProcShared=32
%chk=AH-A_13.chk
#p td=(50-50,nstates=36) ub3lyp/6-31g(d,p)
scrf=(iefpcm,solvent=acetonitrile) guess=(mix,always) 
empiricaldispersion=gd3

Title Card Required

0 2
 C                 -0.71662800   -1.35267200   -0.71763200
 C                  0.69184900   -1.27339800    0.70008000
 O                 -1.17076000   -2.50879300   -0.39941100
 C                  0.12935100   -1.30461300   -1.99691500
 H                 -0.56000100   -1.41039000   -2.84119100
 H                  0.69375000   -0.38209900   -2.12555300
 H                  0.81985400   -2.14805500   -2.00199300
 C                 -0.11746000   -1.28501600    1.98472500
 H                 -0.72364100   -0.39017600    2.11402800
 H                 -0.77927400   -2.15151200    1.99068100
 H                  0.58227700   -1.36048500    2.82403800
 C                 -1.60139400   -0.15400300   -0.45390200
 C                 -2.79027600   -0.34174800    0.26970300
 C                 -1.29405800    1.13566600   -0.91520300
 C                 -3.64321100    0.72714700    0.53401200
 H                 -3.02857300   -1.34200000    0.61351000
 C                 -2.14835600    2.20773200   -0.65234900
 H                 -0.38148300    1.31532100   -1.47061500
 C                 -3.32367900    2.00892900    0.07484200
 H                 -4.55907800    0.56222800    1.09420300
 H                 -1.89269300    3.19899900   -1.01487500
 H                 -3.98685300    2.84417200    0.27968000
 C                  1.57660000   -0.12260400    0.44481100
 C                  2.74612200   -0.28164300   -0.32864300
 C                  1.27501000    1.15991400    0.94701800
 C                  3.58260700    0.80027300   -0.58377900
 H                  2.98747700   -1.26274600   -0.71850700
 C                  2.11285000    2.24039400    0.68560100
 H                  0.37847200    1.31825100    1.53314600
 C                  3.26914700    2.06716300   -0.08056800
 H                  4.48092900    0.65724300   -1.17656500
 H                  1.86224000    3.22032900    1.07984900
 H                  3.92031200    2.91181700   -0.28380900
 O                  1.30994400   -2.47366900    0.44201100
 H                  0.58197800   -3.11033400    0.29236800

