%NProcShared=32
%chk=AH-A_19.chk
#p td=(50-50,nstates=36) ub3lyp/6-31g(d,p)
scrf=(iefpcm,solvent=acetonitrile) guess=(mix,always) 
empiricaldispersion=gd3

Title Card Required

0 2
 C                 -0.52638500   -1.28328400   -0.41976200
 C                  0.54123500   -1.27746400    0.48586100
 O                 -1.22222400   -2.48765100   -0.32906700
 C                 -0.06649400   -1.38545400   -1.93507200
 H                 -0.94468600   -1.42596700   -2.57804100
 H                  0.52389900   -0.49884400   -2.17067900
 H                  0.55172200   -2.27014200   -2.07337700
 C                  0.03391000   -1.34895900    1.95136200
 H                 -0.57668800   -0.49226500    2.23912100
 H                 -0.57524000   -2.25096700    2.06822700
 H                  0.89393600   -1.41593900    2.61930000
 C                 -1.51585000   -0.10093600   -0.29691600
 C                 -2.71249900   -0.29179100    0.40770300
 C                 -1.27000800    1.15277800   -0.87188200
 C                 -3.63710900    0.74410700    0.54262500
 H                 -2.91835100   -1.26032500    0.85116200
 C                 -2.19353700    2.19088300   -0.73809100
 H                 -0.35225400    1.33415600   -1.41867500
 C                 -3.38014800    1.99150200   -0.02996800
 H                 -4.55668300    0.57545600    1.09517800
 H                 -1.98313600    3.15538900   -1.19047200
 H                 -4.09768300    2.79990400    0.07360000
 C                  1.51487400   -0.09338500    0.32242800
 C                  2.65433600   -0.22906800   -0.48391900
 C                  1.29681300    1.13485900    0.96226100
 C                  3.54400100    0.83323100   -0.65286700
 H                  2.84386000   -1.17751000   -0.97096500
 C                  2.18522300    2.19825500    0.79499700
 H                  0.42202600    1.27849700    1.58505000
 C                  3.31298800    2.05308400   -0.01470100
 H                  4.41993800    0.70377900   -1.28197400
 H                  1.99250600    3.14039800    1.29962800
 H                  4.00483200    2.88007300   -0.14420000
 O                  1.34308700   -2.46501400    0.28552400
 H                  0.69699400   -3.18452800    0.20110700

