%NProcShared=32
%chk=AH-A_16.chk
#p td=(50-50,nstates=36) ub3lyp/6-31g(d,p)
scrf=(iefpcm,solvent=acetonitrile) guess=(mix,always) 
empiricaldispersion=gd3

Title Card Required

0 2
 C                 -0.60111200   -1.32090100   -0.57678800
 C                  0.65364500   -1.30073900    0.57002400
 O                 -1.15930200   -2.51899600   -0.33366400
 C                  0.06058500   -1.34129100   -1.97945400
 H                 -0.72725700   -1.43926400   -2.72966900
 H                  0.62370700   -0.42782700   -2.17096900
 H                  0.73439000   -2.19439400   -2.04809100
 C                  0.02351700   -1.37502800    1.96756900
 H                 -0.65981100   -0.55000700    2.16813400
 H                 -0.53748200   -2.30771500    2.05839000
 H                  0.82226100   -1.36277200    2.71345700
 C                 -1.55933000   -0.14518900   -0.37957500
 C                 -2.74037400   -0.34333800    0.34966700
 C                 -1.30677300    1.12975400   -0.90680600
 C                 -3.64059700    0.70165100    0.55545900
 H                 -2.94562300   -1.33074300    0.74807500
 C                 -2.20708100    2.17758300   -0.70404800
 H                 -0.40055000    1.31937900   -1.46976300
 C                 -3.37630400    1.96897100    0.02948900
 H                 -4.54931400    0.52618100    1.12408700
 H                 -1.99138300    3.15739500   -1.11998100
 H                 -4.07559800    2.78460200    0.18801200
 C                  1.54103300   -0.09658600    0.37027100
 C                  2.69595100   -0.19318900   -0.42533600
 C                  1.23935500    1.13978600    0.96566700
 C                  3.52582200    0.91063700   -0.61423500
 H                  2.93973200   -1.14326100   -0.88396100
 C                  2.06837800    2.24381300    0.77419600
 H                  0.34906900    1.25009100    1.57242000
 C                  3.21449400    2.13464100   -0.01701300
 H                  4.41626000    0.81447400   -1.22823500
 H                  1.81718300    3.19018700    1.24328700
 H                  3.85909100    2.99561400   -0.16627900
 O                  1.41135000   -2.46235000    0.32456600
 H                  0.76169100   -3.17462200    0.19934400

