%NProcShared=32
%chk=AH-A_3.chk
#p td=(50-50,nstates=36) ub3lyp/6-31g(d,p)
scrf=(iefpcm,solvent=acetonitrile) guess=(mix,always) 
empiricaldispersion=gd3

Title Card Required

0 2
 C                 -1.31406100   -1.44029200   -0.98868200
 C                  0.79121000   -1.30443700    1.14424500
 O                 -1.72658700   -2.41873200   -0.35758400
 C                 -0.36773700   -1.62638400   -2.15278700
 H                 -0.77593800   -1.16855500   -3.05943900
 H                  0.59414100   -1.14723800   -1.94524800
 H                 -0.20775100   -2.69224100   -2.31517300
 C                 -0.22927900   -1.17040500    2.22658900
 H                 -0.53041200   -0.13633500    2.39205600
 H                 -1.12889600   -1.73589700    1.95682900
 H                  0.14660100   -1.57913700    3.17475500
 C                 -1.74504400   -0.06218200   -0.62070900
 C                 -2.78174600    0.09483200    0.31560800
 C                 -1.12595800    1.08067700   -1.15358600
 C                 -3.18855000    1.36456700    0.71296000
 H                 -3.25399600   -0.79383900    0.71957400
 C                 -1.52823700    2.35204200   -0.74772400
 H                 -0.31332300    0.98351900   -1.86434000
 C                 -2.55958600    2.49697500    0.18350400
 H                 -3.99228700    1.47585100    1.43436100
 H                 -1.03290500    3.22864300   -1.15325500
 H                 -2.87231100    3.48847000    0.49708200
 C                  1.64664600   -0.28384100    0.65369400
 C                  2.61087100   -0.56768700   -0.36047200
 C                  1.56097400    1.06326700    1.11191300
 C                  3.41372900    0.43526600   -0.88571300
 H                  2.70693700   -1.58592300   -0.71878200
 C                  2.37149100    2.05359500    0.57609400
 H                  0.84639400    1.32799200    1.88279500
 C                  3.30434600    1.75592300   -0.42795000
 H                  4.13552300    0.18897700   -1.65978100
 H                  2.27620200    3.07259900    0.94082300
 H                  3.93370300    2.53675700   -0.84319000
 O                  0.99796700   -2.56694000    0.65919300
 H                  0.14287300   -3.02976000    0.62614800

