%NProcShared=32
%chk=AH-A_9.chk
#p td=(50-50,nstates=36) ub3lyp/6-31g(d,p)
scrf=(iefpcm,solvent=acetonitrile) guess=(mix,always) 
empiricaldispersion=gd3

Title Card Required

0 2
 C                 -0.89596100   -1.39514200   -0.86751400
 C                  0.72802100   -1.24214500    0.89296200
 O                 -1.29463500   -2.50149000   -0.44273400
 C                  0.09374200   -1.37558100   -2.01903700
 H                 -0.48714000   -1.43131700   -2.94760400
 H                  0.71655100   -0.48351300   -2.06288500
 H                  0.73276400   -2.25609300   -1.95431900
 C                 -0.23884200   -1.17785300    2.04124300
 H                 -0.72224100   -0.20687200    2.13640600
 H                 -1.01713800   -1.93362500    1.91225300
 H                  0.29858200   -1.39369000    2.97392900
 C                 -1.65658600   -0.15014100   -0.54558200
 C                 -2.84118000   -0.26372800    0.20415300
 C                 -1.24173800    1.12570400   -0.96388600
 C                 -3.58556100    0.86457100    0.53410400
 H                 -3.15949600   -1.25209200    0.51607500
 C                 -1.98670500    2.25651500   -0.63051500
 H                 -0.32830700    1.24613200   -1.53319000
 C                 -3.15838500    2.13085000    0.11946200
 H                 -4.49913900    0.76074000    1.11193100
 H                 -1.64898900    3.23656100   -0.95352900
 H                 -3.73661500    3.01290900    0.37800800
 C                  1.61682000   -0.16051300    0.55194600
 C                  2.75437600   -0.39208800   -0.26440700
 C                  1.36810800    1.16874500    0.97750500
 C                  3.59181900    0.65260200   -0.63398300
 H                  2.95978700   -1.40176700   -0.59883300
 C                  2.21067000    2.20761200    0.59898800
 H                  0.50596800    1.38828800    1.59527300
 C                  3.32696500    1.96048400   -0.20815800
 H                  4.45757000    0.45017300   -1.25784100
 H                  1.99580800    3.21799300    0.93412000
 H                  3.98181800    2.77526200   -0.50111100
 O                  1.17657700   -2.49221600    0.58228400
 H                  0.38130800   -3.03878300    0.41123100

