%NProcShared=32
%chk=AH-A_20.chk
#p td=(50-50,nstates=36) ub3lyp/6-31g(d,p)
scrf=(iefpcm,solvent=acetonitrile) guess=(mix,always) 
empiricaldispersion=gd3

Title Card Required

0 2
 C                 -0.51247000   -1.25648200   -0.36006400
 C                  0.55359500   -1.24742600    0.38386100
 O                 -1.21573900   -2.46792600   -0.31414000
 C                 -0.07251400   -1.33353100   -1.89959900
 H                 -0.96483300   -1.36652400   -2.52209000
 H                  0.51370100   -0.44170100   -2.12538100
 H                  0.53978400   -2.21907300   -2.05150200
 C                  0.04759600   -1.29740500    1.85859700
 H                 -0.51587100   -0.41053400    2.15023000
 H                 -0.59765200   -2.17295500    1.98251600
 H                  0.91433400   -1.39934700    2.51230200
 C                 -1.55342800   -0.10185800   -0.25160400
 C                 -2.72219300   -0.32711500    0.48916700
 C                 -1.39114800    1.13776900   -0.88335300
 C                 -3.69709500    0.66382400    0.60982400
 H                 -2.86550500   -1.28544600    0.97718900
 C                 -2.36555500    2.13001400   -0.76594200
 H                 -0.50065500    1.34364000   -1.46532000
 C                 -3.52103500    1.89875200   -0.01697700
 H                 -4.59199400    0.46925200    1.19348800
 H                 -2.22083100    3.08333100   -1.26538400
 H                 -4.27875000    2.67146300    0.07175300
 C                  1.55688200   -0.06735200    0.25627200
 C                  2.78004500   -0.25258200   -0.40283700
 C                  1.28665600    1.19206800    0.81023800
 C                  3.69912200    0.79287700   -0.51597000
 H                  3.01332700   -1.22311700   -0.82146800
 C                  2.20531400    2.23672300    0.70187300
 H                  0.35114500    1.37268900    1.32584700
 C                  3.41591900    2.04356100    0.03413000
 H                  4.64011200    0.62389400   -1.03159500
 H                  1.97051800    3.20197400    1.14073600
 H                  4.13115000    2.85625300   -0.05132700
 O                  1.39127400   -2.42999800    0.23494800
 H                  0.79959200   -3.19144500    0.32784900

