%NProcShared=32
%chk=AH-A_6.chk
#p td=(50-50,nstates=36) ub3lyp/6-31g(d,p)
scrf=(iefpcm,solvent=acetonitrile) guess=(mix,always) 
empiricaldispersion=gd3

Title Card Required

0 2
 C                 -1.08188000   -1.44211100   -0.94368100
 C                  0.76773500   -1.28117200    1.01668200
 O                 -1.48333200   -2.48588600   -0.40803600
 C                 -0.08982000   -1.51552000   -2.08482800
 H                 -0.60770700   -1.27135800   -3.01965400
 H                  0.73657900   -0.81173100   -1.97149700
 H                  0.30654800   -2.52870800   -2.14602400
 C                 -0.23710000   -1.21491900    2.12337100
 H                 -0.66049900   -0.21886400    2.24743100
 H                 -1.06163600   -1.90413900    1.91736600
 H                  0.22456800   -1.51753000    3.07332500
 C                 -1.68555900   -0.12593500   -0.59250800
 C                 -2.79879800   -0.10196000    0.26637800
 C                 -1.17744800    1.08934800   -1.08196000
 C                 -3.38440500    1.10536200    0.63373600
 H                 -3.18800000   -1.04491300    0.63381800
 C                 -1.76272400    2.29867000   -0.71019900
 H                 -0.31398900    1.09893400   -1.73652400
 C                 -2.86517800    2.31063200    0.14786800
 H                 -4.24443100    1.11126300    1.29654700
 H                 -1.35421200    3.23185000   -1.08546100
 H                 -3.31898300    3.25400800    0.43646600
 C                  1.62031800   -0.21192100    0.61190100
 C                  2.68760500   -0.44029700   -0.30368600
 C                  1.41858800    1.12236800    1.06243300
 C                  3.48940800    0.60474500   -0.74244500
 H                  2.86391600   -1.44911600   -0.65761900
 C                  2.22779000    2.15769100    0.61400200
 H                  0.61667700    1.34403100    1.75662600
 C                  3.26896400    1.91332500   -0.29135300
 H                  4.29578200    0.40157900   -1.44163200
 H                  2.04570100    3.16756100    0.97043200
 H                  3.89732000    2.72758500   -0.63844900
 O                  1.11822900   -2.53287600    0.59828900
 H                  0.29822500   -3.05019500    0.48856700

