%NProcShared=32
%chk=AH-A_15.chk
#p td=(50-50,nstates=36) ub3lyp/6-31g(d,p)
scrf=(iefpcm,solvent=acetonitrile) guess=(mix,always) 
empiricaldispersion=gd3

Title Card Required

0 2
 C                 -0.63061500   -1.34163200   -0.62835800
 C                  0.67960800   -1.30618000    0.60536000
 O                 -1.14679600   -2.52141200   -0.34286000
 C                  0.09107900   -1.33559400   -1.99288200
 H                 -0.66902300   -1.43525900   -2.77257200
 H                  0.65777500   -0.42189200   -2.17014600
 H                  0.76799000   -2.18804000   -2.04479300
 C                 -0.00216800   -1.38006800    1.97183700
 H                 -0.69328600   -0.55579400    2.14388000
 H                 -0.56217000   -2.31337400    2.04582100
 H                  0.77118600   -1.35999500    2.74492000
 C                 -1.56362700   -0.15559900   -0.40535200
 C                 -2.74109800   -0.34720100    0.33242500
 C                 -1.29865100    1.12184200   -0.92080800
 C                 -3.62525200    0.70672700    0.55816600
 H                 -2.95221700   -1.33767100    0.71971800
 C                 -2.18361500    2.17864700   -0.69830400
 H                 -0.39471300    1.30587600   -1.48920400
 C                 -3.34861100    1.97666000    0.04391900
 H                 -4.53179600    0.53697000    1.13202400
 H                 -1.95906800    3.16047800   -1.10471100
 H                 -4.03568300    2.79951500    0.21791800
 C                  1.54256300   -0.10145300    0.39085300
 C                  2.69933400   -0.19092700   -0.40540800
 C                  1.22217700    1.13825000    0.97245800
 C                  3.51256800    0.92197600   -0.60635400
 H                  2.95542600   -1.14199500   -0.85520600
 C                  2.03540300    2.25079700    0.76807400
 H                  0.33057900    1.24216400    1.57815200
 C                  3.18293000    2.14824200   -0.02248100
 H                  4.40424000    0.83243700   -1.21936800
 H                  1.77123700    3.19905900    1.22584500
 H                  3.81479900    3.01668600   -0.18212100
 O                  1.41383800   -2.46285300    0.34469200
 H                  0.75623200   -3.17198400    0.23634200

