%NProcShared=40
%chk=Step02-sp-td.chk
#p td=(50-50,nstates=100) ub3lyp/6-31g(d,p)
scrf=(iefpcm,solvent=acetonitrile) guess=(core,mix,always)
empiricaldispersion=gd3

After the closed shell GS is optimized, find out which excited state we
need

0 1
 C                  0.35429200   -1.47936700   -0.30068200
 H                  4.61802200   -1.28328300    1.29804900
 C                  1.78959000    1.48603600    0.31370300
 O                  2.51655100    1.44709000   -0.67856400
 O                  1.08739300   -1.59167300    0.68272400
 N                  4.64177800   -0.83216900   -0.64035200
 H                  4.54253700   -1.38286300   -1.49002100
 N                  4.21672900   -1.68418800    0.45352400
 H                  3.20109700   -1.64085200    0.56767300
 H                  4.01519500   -0.02933400   -0.73513200
 C                  0.94441300   -1.34420700   -1.68627600
 H                  0.59689000   -2.15548300   -2.33388300
 H                  0.62986400   -0.39991000   -2.13980600
 H                  2.03185300   -1.35996200   -1.62133200
 C                  2.34462000    1.20312100    1.69137600
 H                  2.13324200    2.03013800    2.37626600
 H                  1.87762100    0.30052800    2.09586900
 H                  3.42118200    1.04823400    1.61971900
 C                 -1.12781700   -1.46690600   -0.13375500
 C                 -1.66106600   -1.66547200    1.15109900
 C                 -2.00002500   -1.24391500   -1.21009700
 C                 -3.03620300   -1.64507000    1.35551100
 H                 -0.97696600   -1.82964000    1.97627900
 C                 -3.37897200   -1.21780500   -1.00328800
 H                 -1.61100000   -1.07944100   -2.20839700
 C                 -3.89843000   -1.41901600    0.27693200
 H                 -3.43946900   -1.80028900    2.35145800
 H                 -4.04634800   -1.03761900   -1.84012800
 H                 -4.97247900   -1.39839200    0.43570400
 C                  0.33579300    1.78997900    0.16355300
 C                 -0.15191200    2.12626000   -1.11132200
 C                 -0.56215200    1.70368400    1.23851300
 C                 -1.50806400    2.36076200   -1.30890600
 H                  0.55151200    2.19258400   -1.93417400
 C                 -1.92258100    1.93338000    1.03808300
 H                 -0.21041200    1.43511900    2.22813300
 C                 -2.39735900    2.25813200   -0.23361300
 H                 -1.87675800    2.61490100   -2.29780400
 H                 -2.61288100    1.84333300    1.87029900
 H                 -3.45857000    2.42581400   -0.38923400

