%NProcShared=32
%chk=Ketone.chk
#p opt freq rb3lyp/6-31g(d,p) scrf=(iefpcm,solvent=acetonitrile)
empiricaldispersion=gd3

Title Card Required

0 1
 C                 -0.83640300    1.53853500   -0.52880600
 O                 -1.64230800    1.69973200    0.38898400
 C                 -1.31843800    1.16999700   -1.91452700
 H                 -0.82942900    1.76881800   -2.68745600
 H                 -1.08744800    0.11616000   -2.10185400
 H                 -2.39921500    1.30649500   -1.96583000
 C                  0.62599100    1.66964800   -0.26560300
 C                  1.04196100    2.12096700    0.99847200
 C                  1.59209700    1.33139700   -1.22555900
 C                  2.39556600    2.23828700    1.29468400
 H                  0.28646600    2.37384000    1.73427200
 C                  2.94856100    1.44013400   -0.92363800
 H                  1.29338400    0.96191300   -2.19980900
 C                  3.35188800    1.89645500    0.33279800
 H                  2.70887000    2.59143600    2.27233800
 H                  3.68982100    1.16207100   -1.66584700
 H                  4.40925600    1.98116000    0.56493000

