%NProcShared=32
%chk=AH-A.chk
#p opt=modredundant ub3lyp/6-31g(d,p) scrf=(iefpcm,solvent=acetonitrile)
empiricaldispersion=gd3

Title Card Required

0 2
 C                  1.47419275   -1.43757208    1.09339795
 C                 -0.78997400   -1.31318200   -1.16449400
 O                  1.89688175   -2.39969808    0.44534195
 C                  0.54611175   -1.65493608    2.26656295
 H                  0.93830275   -1.17510908    3.16864195
 H                 -0.43521425   -1.21623408    2.05861395
 H                  0.42921675   -2.72542608    2.43538895
 C                  0.22470900   -1.16332500   -2.24981600
 H                  0.48931300   -0.12261800   -2.43483900
 H                  1.14414800   -1.69126900   -1.96916600
 H                 -0.13470900   -1.60337800   -3.19024100
 C                  1.86020175   -0.04590808    0.72528595
 C                  2.87633175    0.14435092   -0.22715405
 C                  1.21527475    1.07625692    1.27112095
 C                  3.23835375    1.42674492   -0.62718105
 H                  3.36832575   -0.72873108   -0.64147805
 C                  1.57207675    2.36015192    0.86210895
 H                  0.41691175    0.95287692    1.99395495
 C                  2.58381775    2.53828192   -0.08470605
 H                  4.02675775    1.56402592   -1.36090805
 H                  1.05657175    3.22039092    1.27738095
 H                  2.86131375    3.53949492   -0.40054805
 C                 -1.64985800   -0.30537100   -0.65737300
 C                 -2.58560600   -0.60192500    0.38000100
 C                 -1.59828800    1.04168500   -1.12161000
 C                 -3.39242300    0.38924000    0.92118000
 H                 -2.65648100   -1.62045000    0.74339700
 C                 -2.41269200    2.01982800   -0.56981700
 H                 -0.90716300    1.31589100   -1.91042700
 C                 -3.31639100    1.71010500    0.45716700
 H                 -4.09132100    0.13338700    1.71299200
 H                 -2.34348900    3.03900300   -0.93998600
 H                 -3.94887400    2.48165300    0.88482200
 O                 -0.96178900   -2.57650600   -0.66647100
 H                 -0.10002800   -3.02684300   -0.65572800

B 2 1 S 19 -0.100000

